xflr5 v6.30
NACA 0010
Alpha =   6.0,  Re =    50000,  Ma= 0.0000,  ACrit= 9.0


Top Side
    x         Hk     Ue/Vinf      Cf        Cd     A/A0       D*       Theta      CTq
 0.00675   2.22951   0.08919   0.00675  0.00017  0.00000   0.00042   0.00019   0.07170
 0.00470   2.20267   0.25771   0.02407  0.00175  0.00000   0.00035   0.00016   0.07102
 0.00302   2.21977   0.46197   0.04686  0.00618  0.00000   0.00032   0.00014   0.07146
 0.00170   2.19837   0.69483   0.07960  0.01558  0.00000   0.00029   0.00013   0.07092
 0.00076   2.21132   0.95242   0.11524  0.03118  0.00000   0.00027   0.00012   0.07124
 0.00019   2.22047   1.21284   0.14950  0.05181  0.00000   0.00026   0.00012   0.07147
 0.00000   2.24741   1.45253   0.17002  0.07186  0.00000   0.00027   0.00012   0.07214
 0.00019   2.27929   1.64856   0.17443  0.08563  0.00000   0.00029   0.00013   0.07291
 0.00076   2.33844   1.78363   0.15713  0.08748  0.00000   0.00033   0.00014   0.07428
 0.00170   2.41547   1.85715   0.12808  0.07959  0.00000   0.00039   0.00016   0.07598
 0.00302   2.50819   1.88298   0.09723  0.06743  0.00000   0.00047   0.00019   0.07789
 0.00470   2.61616   1.87753   0.07019  0.05513  0.00000   0.00058   0.00022   0.07997
 0.00675   2.74047   1.85406   0.04862  0.04460  0.00000   0.00071   0.00026   0.08218
 0.00915   2.88399   1.82163   0.03222  0.03624  0.00000   0.00086   0.00030   0.08453
 0.01191   3.05135   1.78598   0.02006  0.02983  0.00000   0.00105   0.00034   0.08704
 0.01502   3.24865   1.75061   0.01121  0.02499  0.00000   0.00127   0.00039   0.08971
 0.01847   3.48255   1.71764   0.00495  0.02135  0.00000   0.00153   0.00044   0.09256
 0.02227   3.75848   1.68822   0.00074  0.01860  0.07269   0.00182   0.00049   0.09554
 0.02641   4.07775   1.66272  -0.00181  0.01649  0.25486   0.00216   0.00053   0.09854
 0.03088   4.43533   1.64087  -0.00308  0.01482  0.50933   0.00254   0.00057   0.10143
 0.03568   4.82800   1.62242  -0.00349  0.01347  0.78984   0.00297   0.00062   0.10413
 0.04080   5.25357   1.60708  -0.00343  0.01236  1.09294   0.00344   0.00065   0.10664
 0.04625   5.70635   1.59434  -0.00321  0.01144  1.41571   0.00394   0.00069   0.10893
 0.05201   6.17941   1.58369  -0.00295  0.01064  1.75553   0.00448   0.00072   0.11100
 0.05809   6.66546   1.57469  -0.00273  0.00995  2.11006   0.00504   0.00076   0.11286
 0.06447   7.15721   1.56700  -0.00256  0.00934  2.47724   0.00563   0.00079   0.11452
 0.07116   7.64765   1.56032  -0.00241  0.00880  2.85522   0.00623   0.00082   0.11600
 0.07814   8.13001   1.55446  -0.00229  0.00832  3.24240   0.00685   0.00084   0.11730
 0.08542   8.59770   1.54924  -0.00219  0.00789  3.63736   0.00747   0.00087   0.11846
 0.09299   9.04421   1.54454  -0.00210  0.00751  4.03885   0.00809   0.00089   0.11947
 0.10084   9.46307   1.54024  -0.00202  0.00717  4.44576   0.00870   0.00092   0.12036
 0.10897   9.84773   1.53626  -0.00196  0.00687  4.85714   0.00930   0.00094   0.12112
 0.11738  10.19153   1.53254  -0.00189  0.00659  5.27212   0.00987   0.00097   0.12176
 0.12605  10.48758   1.52901  -0.00184  0.00635  5.68995   0.01041   0.00099   0.12229
 0.13499  10.72863   1.52562  -0.00178  0.00613  6.10994   0.01092   0.00102   0.12270
 0.14420  10.90686   1.52232  -0.00173  0.00592  6.53149   0.01137   0.00104   0.12300
 0.15365  11.01358   1.51907  -0.00168  0.00574  6.95401   0.01177   0.00107   0.12318
 0.16336  11.03869   1.51584  -0.00164  0.00557  7.37695   0.01209   0.00109   0.12322
 0.17331  10.96970   1.51256  -0.00160  0.00542  7.79971   0.01232   0.00112   0.12311
 0.18350  10.78983   1.50918  -0.00156  0.00529  8.22161   0.01243   0.00115   0.12281
 0.19393  10.47284   1.50562  -0.00152  0.00517  8.64170   0.01239   0.00118   0.12226
 0.20458   9.54124   1.49582  -0.00049  0.08727  0.14447   0.01218   0.00128   0.11871
 0.21546   6.56656   1.44432  -0.00045  0.06568  0.13646   0.01191   0.00181   0.11030
 0.22656   4.87845   1.39683  -0.00034  0.05061  0.12994   0.01145   0.00235   0.10162
 0.23787   3.78927   1.35286   0.00006  0.03919  0.12401   0.01089   0.00287   0.09241
 0.24938   3.12066   1.31944   0.00134  0.03091  0.11802   0.01028   0.00330   0.08440
 0.26110   2.67953   1.29473   0.00267  0.02485  0.11220   0.00971   0.00362   0.07723
 0.27301   2.37576   1.27681   0.00387  0.02040  0.10672   0.00920   0.00387   0.07088
 0.28511   2.15993   1.26380   0.00490  0.01712  0.10165   0.00877   0.00406   0.06532
 0.29739   2.00302   1.25413   0.00575  0.01469  0.09704   0.00843   0.00421   0.06053
 0.30986   1.88678   1.24661   0.00643  0.01286  0.09291   0.00818   0.00434   0.05648
 0.32249   1.79927   1.24037   0.00695  0.01148  0.08923   0.00800   0.00445   0.05309
 0.33529   1.73240   1.23483   0.00734  0.01041  0.08597   0.00789   0.00455   0.05027
 0.34824   1.68061   1.22964   0.00761  0.00956  0.08308   0.00783   0.00466   0.04795
 0.36135   1.64000   1.22457   0.00778  0.00888  0.08052   0.00781   0.00476   0.04604
 0.37460   1.60780   1.21951   0.00788  0.00832  0.07824   0.00783   0.00487   0.04447
 0.38799   1.58201   1.21439   0.00792  0.00784  0.07620   0.00788   0.00498   0.04318
 0.40152   1.56117   1.20919   0.00790  0.00744  0.07438   0.00795   0.00509   0.04213
 0.41517   1.54421   1.20390   0.00785  0.00708  0.07275   0.00805   0.00521   0.04126
 0.42893   1.53032   1.19853   0.00777  0.00677  0.07127   0.00816   0.00533   0.04055
 0.44281   1.51888   1.19309   0.00766  0.00649  0.06993   0.00829   0.00546   0.03997
 0.45679   1.50943   1.18757   0.00753  0.00624  0.06871   0.00843   0.00558   0.03949
 0.47087   1.50162   1.18199   0.00740  0.00601  0.06761   0.00858   0.00571   0.03911
 0.48503   1.49527   1.17638   0.00730  0.00579  0.06659   0.00874   0.00585   0.03881
 0.49927   1.49026   1.17078   0.00724  0.00560  0.06566   0.00892   0.00598   0.03859
 0.51359   1.48649   1.16520   0.00717  0.00542  0.06481   0.00910   0.00612   0.03844
 0.52797   1.48377   1.15964   0.00709  0.00525  0.06403   0.00929   0.00626   0.03835
 0.54240   1.48198   1.15411   0.00699  0.00509  0.06331   0.00949   0.00641   0.03832
 0.55689   1.48099   1.14860   0.00689  0.00494  0.06265   0.00970   0.00655   0.03833
 0.57141   1.48070   1.14312   0.00678  0.00480  0.06204   0.00992   0.00670   0.03838
 0.58595   1.48102   1.13767   0.00667  0.00467  0.06148   0.01015   0.00685   0.03847
 0.60052   1.48188   1.13225   0.00656  0.00455  0.06096   0.01038   0.00700   0.03859
 0.61510   1.48265   1.12675   0.00645  0.00443  0.06049   0.01062   0.00716   0.03870
 0.62968   1.48327   1.12116   0.00633  0.00431  0.06005   0.01086   0.00732   0.03879
 0.64425   1.48433   1.11560   0.00622  0.00420  0.05966   0.01112   0.00749   0.03891
 0.65879   1.48580   1.11006   0.00611  0.00410  0.05929   0.01138   0.00766   0.03905
 0.67331   1.48768   1.10454   0.00599  0.00400  0.05895   0.01164   0.00783   0.03921
 0.68778   1.48995   1.09901   0.00587  0.00390  0.05865   0.01192   0.00800   0.03940
 0.70220   1.49261   1.09349   0.00575  0.00381  0.05837   0.01221   0.00818   0.03960
 0.71655   1.49565   1.08797   0.00563  0.00372  0.05812   0.01250   0.00836   0.03983
 0.73082   1.49907   1.08243   0.00551  0.00364  0.05789   0.01281   0.00854   0.04007
 0.74500   1.50287   1.07688   0.00539  0.00356  0.05768   0.01312   0.00873   0.04034
 0.75907   1.50707   1.07130   0.00527  0.00348  0.05751   0.01345   0.00893   0.04063
 0.77303   1.51166   1.06570   0.00514  0.00340  0.05735   0.01379   0.00912   0.04093
 0.78685   1.51667   1.06007   0.00501  0.00333  0.05722   0.01414   0.00933   0.04126
 0.80051   1.52212   1.05442   0.00489  0.00325  0.05710   0.01451   0.00953   0.04161
 0.81401   1.52801   1.04872   0.00476  0.00318  0.05701   0.01489   0.00975   0.04198
 0.82733   1.53437   1.04300   0.00463  0.00312  0.05695   0.01529   0.00997   0.04238
 0.84043   1.54123   1.03724   0.00450  0.00305  0.05690   0.01571   0.01019   0.04279
 0.85332   1.54860   1.03145   0.00437  0.00299  0.05687   0.01614   0.01042   0.04323
 0.86596   1.55650   1.02563   0.00424  0.00293  0.05687   0.01659   0.01066   0.04370
 0.87833   1.56496   1.01979   0.00411  0.00287  0.05688   0.01707   0.01091   0.04418
 0.89041   1.57398   1.01395   0.00398  0.00281  0.05691   0.01756   0.01116   0.04469
 0.90217   1.58357   1.00810   0.00385  0.00276  0.05696   0.01807   0.01141   0.04523
 0.91358   1.59373   1.00228   0.00372  0.00271  0.05703   0.01860   0.01167   0.04578
 0.92461   1.60445   0.99651   0.00359  0.00266  0.05711   0.01915   0.01194   0.04635
 0.93521   1.61569   0.99080   0.00347  0.00261  0.05721   0.01972   0.01221   0.04695
 0.94536   1.62740   0.98521   0.00334  0.00257  0.05732   0.02031   0.01248   0.04755
 0.95499   1.63948   0.97976   0.00322  0.00253  0.05744   0.02090   0.01275   0.04816
 0.96406   1.65182   0.97450   0.00311  0.00249  0.05757   0.02150   0.01302   0.04877
 0.97248   1.66422   0.96950   0.00300  0.00246  0.05771   0.02210   0.01328   0.04938
 0.98019   1.67644   0.96482   0.00290  0.00243  0.05784   0.02268   0.01353   0.04996
 0.98705   1.68809   0.96058   0.00280  0.00240  0.05797   0.02323   0.01376   0.05051
 0.99291   1.69862   0.95691   0.00272  0.00238  0.05809   0.02372   0.01397   0.05100
 0.99748   1.70728   0.95400   0.00266  0.00236  0.05819   0.02412   0.01413   0.05139
 1.00000   1.71152   0.95254   0.00263  0.00236  0.05824   0.02433   0.01421   0.05158
 1.00010   2.10608   0.95254   0.00000  0.00380  0.05395   0.03655   0.01736   0.06350
 1.00264   2.06581   0.94887   0.00000  0.00383  0.05417   0.03643   0.01763   0.06434
 1.00566   2.02908   0.94626   0.00000  0.00384  0.05434   0.03618   0.01783   0.06481
 1.00925   2.01228   0.94700   0.00000  0.00382  0.05432   0.03577   0.01777   0.06430
 1.01351   1.99324   0.94785   0.00000  0.00380  0.05430   0.03530   0.01771   0.06371
 1.01858   1.97175   0.94882   0.00000  0.00377  0.05427   0.03478   0.01764   0.06303
 1.02461   1.94762   0.94994   0.00000  0.00374  0.05423   0.03419   0.01756   0.06225
 1.03177   1.92066   0.95121   0.00000  0.00370  0.05418   0.03354   0.01746   0.06136
 1.04029   1.89076   0.95266   0.00000  0.00365  0.05411   0.03283   0.01736   0.06034
 1.05041   1.85781   0.95430   0.00000  0.00360  0.05403   0.03204   0.01725   0.05917
 1.06245   1.82182   0.95615   0.00000  0.00353  0.05392   0.03119   0.01712   0.05785
 1.07675   1.78284   0.95821   0.00000  0.00345  0.05377   0.03027   0.01698   0.05636
 1.09375   1.74104   0.96050   0.00000  0.00336  0.05358   0.02930   0.01683   0.05468
 1.11395   1.69667   0.96298   0.00000  0.00325  0.05334   0.02828   0.01667   0.05281
 1.13797   1.65007   0.96565   0.00000  0.00312  0.05303   0.02722   0.01650   0.05073
 1.16651   1.60168   0.96846   0.00000  0.00297  0.05264   0.02615   0.01632   0.04844
 1.20044   1.55201   0.97137   0.00000  0.00280  0.05214   0.02507   0.01615   0.04593
 1.24077   1.50164   0.97430   0.00000  0.00261  0.05152   0.02400   0.01598   0.04321
 1.28870   1.45120   0.97721   0.00000  0.00239  0.05077   0.02295   0.01581   0.04029
 1.34566   1.40136   0.98003   0.00000  0.00215  0.04987   0.02194   0.01566   0.03718
 1.41336   1.35282   0.98271   0.00000  0.00190  0.04881   0.02099   0.01552   0.03393
 1.49383   1.30628   0.98520   0.00000  0.00165  0.04759   0.02010   0.01539   0.03056
 1.58945   1.26242   0.98748   0.00000  0.00139  0.04623   0.01928   0.01527   0.02715
 1.70310   1.22180   0.98950   0.00000  0.00115  0.04474   0.01853   0.01517   0.02375
 1.83815   1.18492   0.99125   0.00000  0.00093  0.04309   0.01787   0.01508   0.02046
