xflr5 v6.30

 Calculated polar for: NACA 0010

 1 1 Reynolds number fixed          Mach number fixed         

 xtrf =   1.000 (top)        1.000 (bottom)
 Mach =   0.000     Re =     0.050 e 6     Ncrit =   9.000

  alpha     CL        CD       CDp       Cm    Top Xtr Bot Xtr   Cpmin    Chinge    XCp    
 ------- -------- --------- --------- -------- ------- ------- -------- --------- ---------
   0.000   0.0000   0.01742   0.00719  -0.0000  1.0000  1.0000  -0.3447   0.0000   0.4046
   1.000   0.0256   0.01803   0.00777   0.0111  1.0000  1.0000  -0.4166   0.0000  -0.1955
   2.000   0.0701   0.02005   0.00988   0.0160  1.0000  1.0000  -0.5288   0.0000   0.0132
   3.000   0.3823   0.02177   0.01291  -0.0237  0.8696  1.0000  -1.1430   0.0000   0.3084
   4.000   0.5116   0.02039   0.01173  -0.0145  0.6575  1.0000  -1.6884   0.0000   0.2746
   5.000   0.5795   0.02305   0.01294  -0.0004  0.3663  1.0000  -2.1296   0.0000   0.2461
   6.000   0.6636   0.02935   0.01830   0.0060  0.2033  1.0000  -2.5456   0.0000   0.2357
   7.000   0.7494   0.03822   0.02793   0.0106  0.1513  1.0000  -2.9023   0.0000   0.2300
   8.000   0.8065   0.05168   0.04288   0.0155  0.1345  1.0000  -3.0918   0.0000   0.2244
   9.000   0.7590   0.07747   0.07033   0.0133  0.1525  1.0000  -2.6491   0.0000   0.2259
  10.000   0.6307   0.12171   0.11432  -0.0263  0.3093  1.0000  -1.6030   0.0000   0.2845


